Version 4
SHEET 1 1412 680
WIRE 1008 -432 1008 -464
WIRE 1008 -320 1008 -352
WIRE 528 -304 464 -304
WIRE 592 -304 528 -304
WIRE 464 -240 464 -304
WIRE 592 -240 592 -304
WIRE 976 -112 928 -112
WIRE 1120 -112 1056 -112
WIRE 592 -64 592 -160
WIRE 640 -64 592 -64
WIRE 688 -64 640 -64
WIRE 928 -64 928 -112
WIRE 928 -64 752 -64
WIRE 1120 -64 1120 -112
WIRE 1168 -64 1120 -64
WIRE 1216 -64 1168 -64
WIRE 592 -32 592 -64
WIRE 928 -16 928 -64
WIRE 944 -16 928 -16
WIRE 1024 -16 1008 -16
WIRE 1040 -16 1024 -16
WIRE 1120 -16 1120 -64
WIRE 1120 -16 1104 -16
WIRE 16 16 -96 16
WIRE 192 16 96 16
WIRE 256 16 192 16
WIRE 320 16 256 16
WIRE 464 16 464 -160
WIRE 464 16 384 16
WIRE 512 16 464 16
WIRE 528 16 512 16
WIRE 1024 16 1024 -16
WIRE -96 64 -96 16
WIRE 592 80 592 64
WIRE 640 80 592 80
WIRE 656 80 640 80
WIRE 784 80 736 80
WIRE 464 96 464 16
WIRE 592 96 592 80
WIRE 784 112 784 80
WIRE -96 176 -96 144
WIRE 464 224 464 176
WIRE 592 224 592 176
WIRE 592 224 464 224
WIRE 784 224 784 176
WIRE 784 224 592 224
WIRE 592 256 592 224
WIRE 192 336 192 16
WIRE 576 336 192 336
WIRE 1216 336 1216 -64
WIRE 1216 336 656 336
FLAG 592 256 0
FLAG 1008 -320 0
FLAG 512 16 b
FLAG 640 -64 c
FLAG 640 80 e
FLAG 256 16 in
FLAG 1168 -64 out
FLAG -96 176 0
FLAG 1024 16 0
FLAG 528 -304 v+
FLAG 1008 -464 v+
SYMBOL npn 528 -32 R0
SYMATTR InstName Q1
SYMATTR Value 2N3904
SYMBOL res 576 -256 R0
SYMATTR InstName R1
SYMATTR Value 1k
SYMBOL voltage 1008 -448 R0
WINDOW 123 0 0 Left 0
WINDOW 39 0 0 Left 0
SYMATTR InstName V1
SYMATTR Value 12
SYMBOL cap 752 -80 R90
WINDOW 0 0 32 VBottom 2
WINDOW 3 32 32 VTop 2
SYMATTR InstName C3
SYMATTR Value 100n
SYMBOL cap 384 0 R90
WINDOW 0 0 32 VBottom 2
WINDOW 3 32 32 VTop 2
SYMATTR InstName C4
SYMATTR Value 100n
SYMBOL res 448 -256 R0
SYMATTR InstName R2
SYMATTR Value 4k
SYMBOL res 448 80 R0
SYMATTR InstName R3
SYMATTR Value 4k
SYMBOL res 576 80 R0
SYMATTR InstName R4
SYMATTR Value 1k
SYMBOL cap 768 112 R0
SYMATTR InstName C5
SYMATTR Value 100n
SYMBOL res 752 64 R90
WINDOW 0 0 56 VBottom 2
WINDOW 3 32 56 VTop 2
SYMATTR InstName R5
SYMATTR Value 100
SYMBOL voltage -96 48 R0
WINDOW 3 -196 103 Left 2
WINDOW 123 24 124 Left 2
WINDOW 39 0 0 Left 0
SYMATTR InstName V2
SYMATTR Value SINE(1 0.1 200k)
SYMATTR Value2 AC 1
SYMBOL ind 960 -96 R270
WINDOW 0 32 56 VTop 2
WINDOW 3 5 56 VBottom 2
SYMATTR InstName L1
SYMATTR Value 400µ
SYMBOL cap 1008 -32 R90
WINDOW 0 0 32 VBottom 2
WINDOW 3 32 32 VTop 2
SYMATTR InstName C1
SYMATTR Value 10n
SYMBOL cap 1104 -32 R90
WINDOW 0 0 32 VBottom 2
WINDOW 3 32 32 VTop 2
SYMATTR InstName C2
SYMATTR Value 2n
SYMBOL res 672 320 R90
WINDOW 0 0 56 VBottom 2
WINDOW 3 32 56 VTop 2
SYMATTR InstName R6
SYMATTR Value 1m ac=1g
SYMBOL res 112 0 R90
WINDOW 0 0 56 VBottom 2
WINDOW 3 32 56 VTop 2
SYMATTR InstName R7
SYMATTR Value 1g ac=1m
TEXT 456 440 Left 2 !.ac oct 100 100 100meg
TEXT 456 472 Left 2 ;.tran 0 1m 0 0.1u
TEXT 456 504 Left 2 !.meas TRAN Vin_pp PP V(in) FROM 0.1m TO 0.5m
TEXT 456 536 Left 2 !.meas TRAN Vout_pp PP V(out) FROM 0.1m TO 0.5m
TEXT 456 568 Left 2 !.meas TRAN Vb_avg AVG V(b) FROM 0.1m TO 0.5m
TEXT 456 600 Left 2 !.meas TRAN Vc_avg AVG V(c) FROM 0.1m TO 0.5m
TEXT 456 416 Left 2 ;.op
