Version 4
SHEET 1 880 680
WIRE 80 64 64 64
WIRE 160 64 80 64
WIRE 304 64 240 64
WIRE 352 64 304 64
WIRE 448 64 352 64
WIRE 64 96 64 64
WIRE 304 112 304 64
WIRE 64 208 64 176
WIRE 304 208 304 176
WIRE 304 208 64 208
WIRE 64 224 64 208
FLAG 64 224 0
FLAG 352 64 out
FLAG 80 64 in
SYMBOL cap 288 112 R0
SYMATTR InstName C1
SYMATTR Value 1µ
SYMBOL res 256 48 R90
WINDOW 0 0 56 VBottom 2
WINDOW 3 32 56 VTop 2
SYMATTR InstName R1
SYMATTR Value 1k
SYMBOL voltage 64 80 R0
WINDOW 3 -351 57 Left 2
WINDOW 123 -350 85 Left 2
WINDOW 39 0 0 Left 0
SYMATTR Value PWL(0 0 2000u 0 2001u 1)
SYMATTR Value2 AC 1
SYMATTR InstName V1
TEXT 96 264 Left 2 !.tran 50m startup
TEXT 96 288 Left 2 ;.ac dec 10 1 100k
TEXT 96 312 Left 2 ;.ac dec 10 1 100k
TEXT 96 336 Left 2 ;.noise V(out) V1 oct 10 1 100k
TEXT 56 -48 Left 2 !.meas TRAN start_rise FROM 0 TARG V(out)=0.1
TEXT 56 -24 Left 2 !.meas TRAN end_rise FROM 0 TARG V(out)=0.9
TEXT 56 0 Left 2 !.meas TRAN rise_time TRIG V(out)=0.1 TARG V(out)=0.9
