Version 4
SHEET 1 880 680
WIRE 80 64 64 64
WIRE 160 64 80 64
WIRE 304 64 240 64
WIRE 352 64 304 64
WIRE 448 64 352 64
WIRE 64 96 64 64
WIRE 304 112 304 64
WIRE 64 208 64 176
WIRE 304 208 304 176
WIRE 304 208 64 208
WIRE 64 224 64 208
FLAG 64 224 0
FLAG 352 64 out
FLAG 80 64 in
SYMBOL cap 288 112 R0
SYMATTR InstName C1
SYMATTR Value 1µ
SYMBOL res 256 48 R90
WINDOW 0 0 56 VBottom 2
WINDOW 3 32 56 VTop 2
SYMATTR InstName R1
SYMATTR Value 1k
SYMBOL voltage 64 80 R0
WINDOW 3 32 154 Left 2
WINDOW 123 0 0 Left 0
WINDOW 39 0 0 Left 0
SYMATTR InstName V1
SYMATTR Value PWL(0 0 1000u 0 1001u 1)
TEXT 24 256 Left 2 !.tran 50m startup
